#!/system/bin/sh
# KTSR by pedro (pedrozzz0 @ GitHub)
# If you wanna use it as part of your project, please maintain the credits to it respective's author(s).

MODPATH=/data/adb/modules/KTSR

# Load libraries
. "$MODPATH"/libs/libktsr.sh

# Check for root permissions and bail if not granted
if [[ "$(id -u)" != "0" ]]
then
    kmsg2 "No root permissions. Exiting..."
    exit 1
fi

if [[ -e "$KLOG" ]] 
then
    rm -rf "$KLOG"
fi

if [[ ! -d "/data/media/0/KTSR" ]] 
then
    mkdir -p "/data/media/0/KTSR"
fi

if [[ -d "/data/media/0/KTSR" ]] 
then
    touch "$KLOG"
fi

if [[ -e "$KDBG" ]]
then
    rm -rf "$KDBG"
fi

boot_run_once=false
ktsr_prof=$(getprop persist.king.tweaks.prof)
[[ -z "$ktsr_prof" ]] && setprop persist.king.tweaks.prof "3"

while true
do
sleep 3
if "$boot_run_once"
then
[[ "$(getprop persist.king.tweaks.prof)" == "$ktsr_prof" ]] && continue
else
boot_run_once=true
fi
ktsr_prof=$(getprop persist.king.tweaks.prof)

case "$ktsr_prof" in

1)
  ktsr_prof_in=otomatis
  ;;

    2)
     ktsr_prof_in=baterai
     ;;

      3)
       ktsr_prof_in=seimbang
       ;;

        4)
         ktsr_prof_in=ekstrim
         ;;

         5)
          ktsr_prof_in=gaming
          ;;

           6)
            ktsr_prof_in=latensi
            ;;
       esac

case "$ktsr_prof" in

1)
  ktsr_prof_pt=automático
  ;;

  2)
   ktsr_prof_pt=bateria
    ;;

    3)
     ktsr_prof_pt=balanceado
     ;;
    
      4)
       ktsr_prof_pt=extremo
       ;;
        	
        5)
         ktsr_prof_pt=gaming
         ;;

         6)
          ktsr_prof_pt=latência
          ;;
      esac

case "$ktsr_prof" in

1)
  ktsr_prof_en=automatic
  ;;

  2)
    ktsr_prof_en=battery
    ;;

     3)
      ktsr_prof_en=balanced
      ;;

       4)
        ktsr_prof_en=extreme
        ;;

        5)
         ktsr_prof_en=gaming
         ;;

          6)
           ktsr_prof_en=latency
           ;;
      esac

case "$ktsr_prof" in 

1)
  ktsr_prof_tr=gecikme
  ;;

    2)
     ktsr_prof_tr=batarya
     ;;

      3)
       ktsr_prof_tr=dengeli
       ;;

        4)
         ktsr_prof_tr=aşırı
         ;;

          5)
            ktsr_prof_tr=oyun
            ;;

             6)
              ktsr_prof_tr=gecikme
              ;;
         esac

case "$ktsr_prof" in

1)
  ktsr_prof_fr=automatique
  ;;

   2)
    kts_prof_fr=batterie
    ;;

     3)
       ktsr_prof_fr=modéré
       ;;

        4)
         ktsr_prof_fr=extrême
         ;;

          5)
           ktsr_prof_fr=jeu
           ;;

            6)
             ktsr_prof_fr=latence
             ;;
        esac

clear_logs() {
# Remove debug log if size is = / > 1 MB
kdbg_max_size=1000000

# Do the same to sqlite opt logs
sqlite_opt_max_size=1000000

if [[ "$(stat -t "$KDBG" | awk '{print $2}')" -eq "$kdbg_max_size" ]] || [[ "$(stat -t "$KLOG" | awk '{print $2}')" -gt "$kdbg_max_size" ]]; then
    rm -rf "$KDBG"

elif [[ "$(stat -t /data/media/0/KTSR/sqlite_opt.log | awk '{print $2}')" -eq "$sqlite_opt_max_size" ]] || [[ "$(stat -t /data/media/0/KTSR/sqlite_opt.log | awk '{print $2}')" -gt "$sqlite_opt_max_size" ]]; then
      rm -rf "/data/media/0/KTSR/sqlite_opt.log"
fi
}

clear_logs

case "$ktsr_prof_en" in
"automatic") 

if [[ "$(getprop persist.sys.locale)" == "en-US" ]]
then
    toast
     	
elif [[ "$(getprop persist.sys.locale)" == "en-GB" ]]
then
    toast
         
elif [[ "$(getprop persist.sys.locale)" == "pt-BR" ]]
then
    toast_pt
     	
elif [[ "$(getprop persist.sys.locale)" == "id-ID" ]]
then
    toast_in
     	
elif [[ "$(getprop persist.sys.locale)" == "tr-TR" ]]
then
    toast_tr
     	
elif [[ "$(getprop persist.sys.locale)" == "fr-FR" ]]
then
    toast_fr

elif [[ "$(getprop persist.sys.locale)" == "fr-CA" ]]
then
    toast_fr

else
    toast
fi

automatic
         
if [[ "$(getprop persist.sys.locale)" == "en-US" ]]
then
    toast_1
     	
elif [[ "$(getprop persist.sys.locale)" == "en-GB" ]]
then
    toast_1
         
elif [[ "$(getprop persist.sys.locale)" == "pt-BR" ]]
then
    toast_pt_1
     	
elif [[ "$(getprop persist.sys.locale)" == "id-ID" ]]
then
    toast_in_1
     	
elif [[ "$(getprop persist.sys.locale)" == "tr-TR" ]]
then
    toast_tr_1
     	
elif [[ "$(getprop persist.sys.locale)" == "fr-FR" ]]
then
    toast_fr_1

elif [[ "$(getprop persist.sys.locale)" == "fr-CA" ]]
then
    toast_fr_1

else
	toast_1
fi
;;
	 
  "balanced")

  if [[ "$(getprop persist.sys.locale)" == "en-US" ]]
then
    toast
     	
elif [[ "$(getprop persist.sys.locale)" == "en-GB" ]]
then
    toast
         
elif [[ "$(getprop persist.sys.locale)" == "pt-BR" ]]
then
    toast_pt
     	
elif [[ "$(getprop persist.sys.locale)" == "id-ID" ]]
then
    toast_in
     	
elif [[ "$(getprop persist.sys.locale)" == "tr-TR" ]]
then
    toast_tr
     	
elif [[ "$(getprop persist.sys.locale)" == "fr-FR" ]]
then
    toast_fr

elif [[ "$(getprop persist.sys.locale)" == "fr-CA" ]]
then
    toast_fr

else
    toast
fi
     	  
    killall -9 kingauto >/dev/null 2>&1
    setprop kingauto.prof null
    balanced
	 	
  if [[ "$(getprop persist.sys.locale)" == "en-US" ]]
then
    toast_1
     	
elif [[ "$(getprop persist.sys.locale)" == "en-GB" ]]
then
    toast_1
         
elif [[ "$(getprop persist.sys.locale)" == "pt-BR" ]]
then
    toast_pt_1
     	
elif [[ "$(getprop persist.sys.locale)" == "id-ID" ]]
then
    toast_in_1
     	
elif [[ "$(getprop persist.sys.locale)" == "tr-TR" ]]
then
    toast_tr_1
     	
elif [[ "$(getprop persist.sys.locale)" == "fr-FR" ]]
then
    toast_fr_1

elif [[ "$(getprop persist.sys.locale)" == "fr-CA" ]]
then
    toast_fr_1

else
	toast_1
fi
  ;;
	
	"extreme") 

    if [[ "$(getprop persist.sys.locale)" == "en-US" ]]
then
    toast
     	
elif [[ "$(getprop persist.sys.locale)" == "en-GB" ]]
then
    toast
         
elif [[ "$(getprop persist.sys.locale)" == "pt-BR" ]]
then
    toast_pt
     	
elif [[ "$(getprop persist.sys.locale)" == "id-ID" ]]
then
    toast_in
     	
elif [[ "$(getprop persist.sys.locale)" == "tr-TR" ]]
then
    toast_tr
     	
elif [[ "$(getprop persist.sys.locale)" == "fr-FR" ]]
then
    toast_fr

elif [[ "$(getprop persist.sys.locale)" == "fr-CA" ]]
then
    toast_fr

else
    toast
fi
     	   
      killall -9 kingauto >/dev/null 2>&1
      setprop kingauto.prof null
	  extreme
	 		 
      if [[ "$(getprop persist.sys.locale)" == "en-US" ]]
then
    toast_1
     	
elif [[ "$(getprop persist.sys.locale)" == "en-GB" ]]
then
    toast_1
         
elif [[ "$(getprop persist.sys.locale)" == "pt-BR" ]]
then
    toast_pt_1
     	
elif [[ "$(getprop persist.sys.locale)" == "id-ID" ]]
then
    toast_in_1
     	
elif [[ "$(getprop persist.sys.locale)" == "tr-TR" ]]
then
    toast_tr_1
     	
elif [[ "$(getprop persist.sys.locale)" == "fr-FR" ]]
then
    toast_fr_1

elif [[ "$(getprop persist.sys.locale)" == "fr-CA" ]]
then
    toast_fr_1

else
	toast_1
fi
	  ;;
	 		
	 	"battery")
	
         if [[ "$(getprop persist.sys.locale)" == "en-US" ]]
then
    toast
     	
elif [[ "$(getprop persist.sys.locale)" == "en-GB" ]]
then
    toast
         
elif [[ "$(getprop persist.sys.locale)" == "pt-BR" ]]
then
    toast_pt
     	
elif [[ "$(getprop persist.sys.locale)" == "id-ID" ]]
then
    toast_in
     	
elif [[ "$(getprop persist.sys.locale)" == "tr-TR" ]]
then
    toast_tr
     	
elif [[ "$(getprop persist.sys.locale)" == "fr-FR" ]]
then
    toast_fr

elif [[ "$(getprop persist.sys.locale)" == "fr-CA" ]]
then
    toast_fr

else
    toast
fi
     	
           killall -9 kingauto >/dev/null 2>&1
           setprop kingauto.prof null
	 	  battery
	 			
         if [[ "$(getprop persist.sys.locale)" == "en-US" ]]
then
    toast_1
     	
elif [[ "$(getprop persist.sys.locale)" == "en-GB" ]]
then
    toast_1
         
elif [[ "$(getprop persist.sys.locale)" == "pt-BR" ]]
then
    toast_pt_1
     	
elif [[ "$(getprop persist.sys.locale)" == "id-ID" ]]
then
    toast_in_1
     	
elif [[ "$(getprop persist.sys.locale)" == "tr-TR" ]]
then
    toast_tr_1
     	
elif [[ "$(getprop persist.sys.locale)" == "fr-FR" ]]
then
    toast_fr_1

elif [[ "$(getprop persist.sys.locale)" == "fr-CA" ]]
then
    toast_fr_1

else
	toast_1
fi
	 	;;

	    	"gaming")

            if [[ "$(getprop persist.sys.locale)" == "en-US" ]]
then
    toast
     	
elif [[ "$(getprop persist.sys.locale)" == "en-GB" ]]
then
    toast
         
elif [[ "$(getprop persist.sys.locale)" == "pt-BR" ]]
then
    toast_pt
     	
elif [[ "$(getprop persist.sys.locale)" == "id-ID" ]]
then
    toast_in
     	
elif [[ "$(getprop persist.sys.locale)" == "tr-TR" ]]
then
    toast_tr
     	
elif [[ "$(getprop persist.sys.locale)" == "fr-FR" ]]
then
    toast_fr

elif [[ "$(getprop persist.sys.locale)" == "fr-CA" ]]
then
    toast_fr

else
    toast
fi
         
              killall -9 kingauto >/dev/null 2>&1
              setprop kingauto.prof null
	 	     gaming
	 				
              if [[ "$(getprop persist.sys.locale)" == "en-US" ]]
then
    toast_1
     	
elif [[ "$(getprop persist.sys.locale)" == "en-GB" ]]
then
    toast_1
         
elif [[ "$(getprop persist.sys.locale)" == "pt-BR" ]]
then
    toast_pt_1
     	
elif [[ "$(getprop persist.sys.locale)" == "id-ID" ]]
then
    toast_in_1
     	
elif [[ "$(getprop persist.sys.locale)" == "tr-TR" ]]
then
    toast_tr_1
     	
elif [[ "$(getprop persist.sys.locale)" == "fr-FR" ]]
then
    toast_fr_1

elif [[ "$(getprop persist.sys.locale)" == "fr-CA" ]]
then
    toast_fr_1

else
	toast_1
fi
	      	;;
	 	
	        	"latency")

                if [[ "$(getprop persist.sys.locale)" == "en-US" ]]
then
    toast
     	
elif [[ "$(getprop persist.sys.locale)" == "en-GB" ]]
then
    toast
         
elif [[ "$(getprop persist.sys.locale)" == "pt-BR" ]]
then
    toast_pt
     	
elif [[ "$(getprop persist.sys.locale)" == "id-ID" ]]
then
    toast_in
     	
elif [[ "$(getprop persist.sys.locale)" == "tr-TR" ]]
then
    toast_tr
     	
elif [[ "$(getprop persist.sys.locale)" == "fr-FR" ]]
then
    toast_fr

elif [[ "$(getprop persist.sys.locale)" == "fr-CA" ]]
then
    toast_fr

else
    toast
fi
         
                 killall -9 kingauto >/dev/null 2>&1
                 setprop kingauto.prof null
	 			latency
	 				
                 if [[ "$(getprop persist.sys.locale)" == "en-US" ]]
                 then
                 toast_1
     	
                elif [[ "$(getprop persist.sys.locale)" == "en-GB" ]]
                then
                toast_1
    
                elif [[ "$(getprop persist.sys.locale)" == "pt-BR" ]]
                then
                toast_pt_1
     	
                elif [[ "$(getprop persist.sys.locale)" == "id-ID" ]]
                then
                toast_in_1
                
                elif [[ "$(getprop persist.sys.locale)" == "tr-TR" ]]
                then
                    toast_tr_1
     	
                elif [[ "$(getprop persist.sys.locale)" == "fr-FR" ]]
                then
                    toast_fr_1

                elif [[ "$(getprop persist.sys.locale)" == "fr-CA" ]]
                then
                    toast_fr_1
                
                else
                    toast_1
                fi
                ;;
            esac
       done