#!/system/bin/sh
# Written by Draco (tytydraco @ GitHub)
# Modified by Pedrozzz (pedrozzz0 @ GitHub)
# If you wanna use it as part of your project, please maintain the credits to it respective's author(s).

MODPATH=/data/adb/modules/KTSR

LOG=/sdcard/KTS/KTS.log

if [[ -e $LOG ]] 
then
rm $LOG
fi

if [[ -d "/sdcard/KTS" ]] 
then
touch KTS.log

else
mkdir /sdcard/KTS
touch KTS.log
fi

# Log in white and continue (unnecessary)
kmsg() {
	echo -e "[*] $@" >> $LOG
	echo -e "[*] $@"
}

kmsg1() {
	echo -e "$@" >> $LOG
	echo -e "$@"
}

toasten() {
	am start -a android.intent.action.MAIN -e toasttext "Applying $kts_profile profile..." -n bellavita.toast/.MainActivity
}
	
toasten1() {
	am start -a android.intent.action.MAIN -e toasttext "$kts_profile profile applied" -n bellavita.toast/.MainActivity
}

toastpt() {
	am start -a android.intent.action.MAIN -e toasttext "Aplicando perfil $kts_profilept..." -n bellavita.toast/.MainActivity
}

toastpt1() {
	am start -a android.intent.action.MAIN -e toasttext "Perfil $kts_profilept aplicado" -n bellavita.toast/.MainActivity
}

toasttr() {
	am start -a android.intent.action.MAIN -e toasttext "$kts_profiletr profili uygulanıyor..." -n bellavita.toast/.MainActivity
}

toasttr1() {
	am start -a android.intent.action.MAIN -e toasttext "$kts_profiletr profili uygulandı" -n bellavita.toast/.MainActivity
}

toastin() {
	am start -a android.intent.action.MAIN -e toasttext "Menerapkan profil $kts_profilein..." -n bellavita.toast/.MainActivity
}

toastin1() {
	am start -a android.intent.action.MAIN -e toasttext "Profil $kts_profilein terpakai" -n bellavita.toast/.MainActivity
}

toastfr() {
	am start -a android.intent.action.MAIN -e toasttext "Chargement du profil $kts_profilefr..." -n bellavita.toast/.MainActivity
}

toastfr1() {
	am start -a android.intent.action.MAIN -e toasttext "Profil $kts_profilefr chargé" -n bellavita.toast/.MainActivity
}

write() {
	# Bail out if file does not exist
	if [[ ! -f "$1" ]]
	then
    kmsg "$1 doesn't exist, skipping..."
    return 1
    fi

	# Fetch the current key value
	local curval=`cat "$1" 2> /dev/null`
	
	# Bail out if value is already set
	if [[ "$curval" == "$2" ]]
	then
	kmsg "$1 is already set to $2, skipping..."
	return 1
	fi

	# Make file writable in case it is not already
	chmod +w "$1" 2> /dev/null

	# Write the new value and bail if there's an error
	if ! echo "$2" > "$1" 2> /dev/null
	then
		kmsg1 "[!] Failed: $1 -> $2"
		return 0
	fi

	# Log the success
	kmsg "$1 $curval -> $2"
}

# Check for root permissions and bail if not granted
if [[ "`id -u`" -ne 0 ]]
then
kmsg1 "[!] No root permissions. Exiting."
exit 1
fi

# Detect if we are running on Android
grep -q android /proc/cmdline && ANDROID=true

# Duration in nanoseconds of one scheduling period
SCHED_PERIOD_LATENCY="$((1 * 1000 * 1000))"

SCHED_PERIOD_BALANCE="$((4 * 1000 * 1000))"

SCHED_PERIOD_BATTERY="$((8 * 1000 * 1000))"

SCHED_PERIOD_THROUGHPUT="$((10 * 1000 * 1000))"

# How many tasks should we have at a maximum in one scheduling period
SCHED_TASKS_LATENCY="10"

SCHED_TASKS_BATTERY="4"

SCHED_TASKS_BALANCE="8"

SCHED_TASKS_THROUGHPUT="6"

# Maximum unsigned integer size in C
UINT_MAX="4294967295"

    # Variable to GPU directories
    for gpul in /sys/devices/soc/*.qcom,kgsl-3d0/kgsl/kgsl-3d0
    do
    if [ -d "$gpul" ]; then
        gpu=$gpul
        fi
        done
        
    for gpul1 in /sys/devices/soc.0/*.qcom,kgsl-3d0/kgsl/kgsl-3d0
    do
    if [ -d "$gpul1" ]; then
        gpu=$gpul1
        fi
        done
        
    for gpul2 in /sys/devices/*.mali
    do
    if [ -d "$gpul2" ]; then
        gpu=$gpul2
        fi
        done
        
    for gpul3 in /sys/devices/platform/*.gpu
    do
    if [ -d "$gpul3" ]; then
        gpu=$gpul3
        fi
        done
        
    for gpul4 in /sys/devices/platform/mali-*.0
    do
    if [ -d "$gpul4" ]; then
        gpu=$gpul4
        fi
        done
        
	if [ -d "/sys/class/kgsl/kgsl-3d0" ]; then
		gpu="/sys/class/kgsl/kgsl-3d0"
	elif [ -d "/sys/devices/platform/kgsl-3d0.0/kgsl/kgsl-3d0" ]; then
		gpu="/sys/devices/platform/kgsl-3d0.0/kgsl/kgsl-3d0"
	elif [ -d "/sys/devices/platform/gpusysfs" ]; then
		gpu="/sys/devices/platform/gpusysfs"
	elif [ -d "/sys/devices/platform/mali.0" ]; then
		gpu="/sys/devices/platform/mali.0"
		fi
		
		for gpul in /sys/devices/soc/*.qcom,kgsl-3d0/kgsl/kgsl-3d0/devfreq
        do
        if [ -d "$gpul" ]; then
         gpug=$gpul
         fi
         done  
         
       for gpul1 in /sys/devices/soc.0/*.qcom,kgsl-3d0/kgsl/kgsl-3d0/devfreq
       do
       if [ -d "$gpul1" ]; then
        gpug=$gpul1
        fi
        done
        
      for gpul2 in /sys/devices/platform/*.gpu
      do
      if [ -d "$gpul2" ]; then
        gpug=$gpul2
        fi
        done
        
	if [ -d "/sys/class/kgsl/kgsl-3d0/devfreq" ]; then
		gpug="/sys/class/kgsl/kgsl-3d0/devfreq"
	elif [ -d "/sys/devices/platform/kgsl-3d0.0/kgsl/kgsl-3d0/devfreq" ]; then
		gpug="/sys/devices/platform/kgsl-3d0.0/kgsl/kgsl-3d0/devfreq"
	elif [ -d "/sys/devices/platform/gpusysfs" ]; then
		gpug="/sys/devices/platform/gpusysfs"
	elif [ -d "/sys/module/mali/parameters" ]; then
		gpug="/sys/module/mali/parameters"		
	elif [ -d "/sys/kernel/gpu" ]; then
		gpug="/sys/kernel/gpu"
		fi

    if [[ -e $gpug/gpu_governor ]]; then
    GPU_GOVERNOR=`cat $gpug/gpu_governor`
    
    elif [[ -e $gpug/governor ]]; then
    GPU_GOVERNOR=`cat $gpug/governor`
    fi

    if [[ -e $gpu/min_pwrlevel ]]; then
    gpuminpl=`cat $gpu/min_pwrlevel`
    gpupl=$((gpuminpl + 1))
    fi
    
    gpumx=`cat $gpu/devfreq/available_frequencies | awk -v var="$gpupl" '{print $var}'`
    
    if [[ $gpumx != `cat $gpu/max_gpuclk` ]]; then
    gpumx=`cat $gpu/devfreq/available_frequencies | awk '{print $1}'`

    elif [[ $gpumx != `cat $gpu/max_gpuclk` ]]; then
    gpumx=$gpufreq
    fi
    
# Get running CPU governor    
for cpu in /sys/devices/system/cpu/cpu*/cpufreq/
do
CPU_GOVERNOR=`cat $cpu/scaling_governor` 
done

# Get max CPU frequency
for cpu in /sys/devices/system/cpu/cpu*/cpufreq
do
cpumxfreq=`cat $cpu/scaling_max_freq`
cpumxfreq2=`cat $cpu/cpuinfo_max_freq`

if [[ $cpumxfreq2 > $cpumxfreq ]]; then
cpumxfreq=$cpumxfreq2
fi
done

# Max CPU frequency ÷ 2 
cpumfreq=$((cpumxfreq / 2))

# Get max GPU frequency
gpufreq=`cat $gpu/max_gpuclk`

# Max GPU frequency ÷ 2
gpumfreq=$((gpufreq / 2))

# Variable to SOC manufacturer
mf=`getprop ro.boot.hardware`

# Variable to device SOC
soc=`getprop ro.board.platform`

if [[ $soc == " " ]]; then
soc=`getprop ro.product.board`
fi

# Variable to device SDK
sdk=`getprop ro.build.version.sdk`

# Variable to device architeture
aarch=`getprop ro.product.cpu.abi | awk -F- '{print $1}'`

# Variable to device android release version
arv=`getprop ro.build.version.release`

# Variable to device model
dm=`getprop ro.product.model`

# Variable to get magisk version
magisk=`magisk -c`

# Detect if we're running on a exynos device
if [[ `$mf | grep 'samsungexynos'` ]]; then
exynos=true
else
exynos=false
fi

# Detect if we're running on a mediatek device
if [[ `$soc | grep 'mt'` ]]; then
mtk=true
else
mtk=false
fi

# Detect CPU scheduling type
for cpu in /sys/devices/system/cpu/cpu*/cpufreq/
do
if [[ `cat $cpu/scaling_available_governors | grep 'util'` ]]; then
cpusched=EAS

elif [[ `cat $cpu/scaling_available_governors | grep 'interactive'` ]]; then
cpusched=HMP

else
cpusched=Unknown
fi
done

# Variable to total device ram
totalram=`free -m | awk '/Mem:/{print $2}'`

# Variable to battery actual capacity
bpercentage=`cat /sys/class/power_supply/battery/capacity`

# Variable to KTS version
bversion=`cat $MODPATH/module.prop | grep version= | sed "s/version=//"`

# Variable to KTS build type
btype=`cat $MODPATH/info.prop | grep buildtype= | sed "s/buildtype=//"`

# Variable to KTS build date
bdate=`cat $MODPATH/info.prop | grep builddate= | sed "s/builddate=//"`

# Variable to battery temperature
if [[ -e /sys/class/power_supply/battery/temp ]]
then
btemp=`cat /sys/class/power_supply/battery/temp`

elif [[ -e /sys/class/power_supply/battery/batt_temp ]]
then 
btemp=`cat /sys/class/power_supply/battery/batt_temp`
fi

btemp=$((btemp / 10))

# Automatic Profile
automatic() {
	     if [[ `getprop persist.sys.locale` == "en-US" ]]
     	then
     	toasten
     	
     	elif [[ `getprop persist.sys.locale` == "en-GB" ]]
         then
         toasten
         
     	elif [[ `getprop persist.sys.locale` == "pt-BR" ]]
     	then
     	toastpt
     	
     	elif [[ `getprop persist.sys.locale` == "id-ID" ]]
     	then
     	toastin
     	
     	elif [[ `getprop persist.sys.locale` == "tr-TR" ]]
     	then
     	toasttr
     	
     	elif [[ `getprop persist.sys.locale` == "fr-FR" ]]
     	then
     	toastfr

     	elif [[ `getprop persist.sys.locale` == "fr-CA" ]]
     	then
     	toastfr

     	else
     	toasten
     	fi
     	
     	kmsg1 "-------------------------------------------------------------------------------------------------------------------------------------------------"
kmsg1 "                                          ENABLING $kts_profile PROFILE...                                                                       "
kmsg1 "-------------------------------------------------------------------------------------------------------------------------------------------------"       	

	sync
	kingauto
	
	kmsg1 "-------------------------------------------------------------------------------------------------------------------------------------------------"
kmsg1 "                                          $kts_profile PROFILE ENABLED.                                                                       "
kmsg1 "-------------------------------------------------------------------------------------------------------------------------------------------------"

         if [[ `getprop persist.sys.locale` == "en-US" ]]
     	then
     	toasten1
     	
     	elif [[ `getprop persist.sys.locale` == "en-GB" ]]
         then
         toasten1
         
     	elif [[ `getprop persist.sys.locale` == "pt-BR" ]]
     	then
     	toastpt1
     	
     	elif [[ `getprop persist.sys.locale` == "id-ID" ]]
     	then
     	toastin1
     	
     	elif [[ `getprop persist.sys.locale` == "tr-TR" ]]
     	then
     	toasttr1
     	
     	elif [[ `getprop persist.sys.locale` == "fr-FR" ]]
     	then
     	toastfr1

     	elif [[ `getprop persist.sys.locale` == "fr-CA" ]]
     	then
     	toastfr1

     	else
     	toasten1
     	fi
}
# Balanced Profile
balanced() {
         init=`date +%s`
         killall kingauto
         
         if [[ `getprop persist.sys.locale` == "en-US" ]]
     	then
     	toasten
     	
     	elif [[ `getprop persist.sys.locale` == "en-GB" ]]
         then
         toasten
         
     	elif [[ `getprop persist.sys.locale` == "pt-BR" ]]
     	then
     	toastpt
     	
     	elif [[ `getprop persist.sys.locale` == "id-ID" ]]
     	then
     	toastin
     	
     	elif [[ `getprop persist.sys.locale` == "tr-TR" ]]
     	then
     	toasttr
     	
     	elif [[ `getprop persist.sys.locale` == "fr-FR" ]]
     	then
     	toastfr

     	elif [[ `getprop persist.sys.locale` == "fr-CA" ]]
     	then
     	toastfr

     	else
     	toasten
     	fi
     	
kmsg1 "----------------------------------------------------- Info -------------------------------------------------------------------------------------------------"
kmsg1 "                                            🕛 Date of execution: $(date)                                                                                   " 
kmsg1 "                                            🔧 Kernel: `uname -a`                                                                                           "
kmsg1 "                                            🛠️ SOC: $mf, $soc                                                                                               "
kmsg1 "                                            ⚙️ SDK: $sdk                                                                                                    "
kmsg1 "                                            ⚒️ CPU Governor: $CPU_GOVERNOR                                                                                  "
kmsg1 "                                            ⚖️ CPU Scheduling Type: $cpusched                                                                               "
kmsg1 "                                            ⛓️ CPU AArch: $aarch                                                                                            "
kmsg1 "                                            🖼️ GPU Governor: $GPU_GOVERNOR                                                                                  "
kmsg1 "                                            🅰️ndroid Version: $arv                                                                                          "
kmsg1 "                                            📱 Device: $dm                                                                                                  "
kmsg1 "                                            👑 KTS Version: $bversion                                                                                       "
kmsg1 "                                            📀 Build Type: $btype                                                                                           "
kmsg1 "                                            ⏰ Build Date: $bdate                                                                                           "
kmsg1 "                                            🔋 Battery Charge Level: $bpercentage%                                                                          "
kmsg1 "                                            🌡️ Battery Temperature: $btemp°C                                                                                "
kmsg1 "                                            💾 Device RAM: $totalram MB                                                                                     "
kmsg1 "                                            👺 Magisk: $magisk                                                                                              "
kmsg1 "------------------------------------------------------------------------------------------------------------------------------------------------------------"

kmsg1 "-------------------------------------------------------------------------------------------------------------------------------------------------"
kmsg1 "                                          ENABLING $kts_profile PROFILE...                                                                       "
kmsg1 "-------------------------------------------------------------------------------------------------------------------------------------------------"       	

renice -n -6 $(pgrep system_server)
renice -n -6 $(pgrep com.miui.home)
renice -n -6 $(pgrep launcher)
renice -n -6 $(pgrep lawnchair)
renice -n -6 $(pgrep home)
renice -n -6 $(pgrep watchapp)
renice -n -6 $(pgrep trebuchet)
renice -n -6 $(pgrep deletescape)
renice -n -1 $(pgrep dialer)
renice -n -1 $(pgrep keyboard)
renice -n -1 $(pgrep inputmethod)
renice -n -9 $(pgrep fluid)
renice -n -10 $(pgrep composer)
renice -n -1 $(pgrep com.android.phone)
renice -n -10 $(pgrep surfaceflinger)
renice -n 1 $(pgrep kswapd0)
renice -n -2 $(pgrep ksmd)
renice -n -2 $(pgrep uksmd)
renice -n -6 $(pgrep msm_irqbalance)
renice -n -7 $(pgrep servicemanager)
renice -n -9 $(pgrep kgsl_worker)
renice -n -8 $(pgrep audioserver)
renice -n 1 $(pgrep thermal-engine)
renice -n 1 $(pgrep crtc_commit)
renice -n 1 $(pgrep crtc_event)
renice -n 6 $(pgrep android.gms)

kmsg1 "-------------------------------------------------------------------------------------------------------------------------------------------------"
kmsg1 "                                          RENICED PROCESSES.                                                                               "
kmsg1 "-------------------------------------------------------------------------------------------------------------------------------------------------"

for panic in /proc/sys/*/*panic*
do
write "$panic" "0"
done

kmsg1 "-------------------------------------------------------------------------------------------------------------------------------------------------"
kmsg1 "                                          DISABLED KERNEL PANIC.                                                         "
kmsg1 "-------------------------------------------------------------------------------------------------------------------------------------------------"

# Enable perfd, thermald and thermal-engine.
start perfd
start thermald
start thermal-engine
start mpdecision

kmsg1 "-------------------------------------------------------------------------------------------------------------------------------------------------"
kmsg1 "                                          ENABLED THERMAL-ENGINE, THERMALD, MPDECISION AND PERFD.                                                         "
kmsg1 "-------------------------------------------------------------------------------------------------------------------------------------------------"

# Disable logd and statsd to reduce overhead.
stop logd
stop statsd

kmsg1 "-------------------------------------------------------------------------------------------------------------------------------------------------"
kmsg1 "                                          DISABLED STATSD AND LOGD.                                                                           "
kmsg1 "-------------------------------------------------------------------------------------------------------------------------------------------------"

if [[ -e "/sys/module/cpu_boost/parameters/dynamic_stune_boost" ]]
then
write "/sys/module/cpu_boost/parameters/dynamic_stune_boost" "10"
write "/sys/module/cpu_boost/parameters/dynamic_stune_boost_ms" "150"
kmsg1 "-------------------------------------------------------------------------------------------------------------------------------------------------"
kmsg1 "                                          TWEAKED STUNE BOOST.                                                                                  "
kmsg1 "-------------------------------------------------------------------------------------------------------------------------------------------------"
fi

for corectl in /sys/devices/system/cpu/cpu*/core_ctl
do
if [[ -e "${corectl}/enable" ]]
then
write "${corectl}/enable" "1"

elif [[ -e "${corectl}/disable" ]]
then
write "${corectl}/disable" "0"
fi
done

if [[ -e "/sys/power/cpuhotplug/enable" ]]
then
write "/sys/power/cpuhotplug/enable" "1"

elif [[ -e "/sys/power/cpuhotplug/enabled" ]]
then
write "/sys/power/cpuhotplug/enabled" "1"
fi

kmsg1 "-------------------------------------------------------------------------------------------------------------------------------------------------"
kmsg1 "                                          ENABLED CORE CONTROL & CPU HOTPLUG.                                                                               "
kmsg1 "-------------------------------------------------------------------------------------------------------------------------------------------------"

# I/O Scheduler Tweaks
for queue in /sys/block/*/queue/
do
write "${queue}add_random" 0
write "${queue}iostats" 0
write "${queue}read_ahead_kb" 128
write "${queue}iosched/low_latency" 1
write "${queue}nomerges" 2
write "${queue}rq_affinity" 1
write "${queue}nr_requests" 64
done

kmsg1 "-------------------------------------------------------------------------------------------------------------------------------------------------"
kmsg1 "                                          TWEAKED I/O SCHEDULER.                                                                              "
kmsg1 "-------------------------------------------------------------------------------------------------------------------------------------------------"

# CPU Tweaks
for cpu in /sys/devices/system/cpu/cpu*/cpufreq/
do
avail_govs=`cat "${cpu}scaling_available_governors"`
if [[ "$avail_govs" == *"schedutil"* ]]
then
write "${cpu}scaling_governor" schedutil
write "${cpu}schedutil/up_rate_limit_us" "$((SCHED_PERIOD_BALANCE / 1000))"
write "${cpu}schedutil/down_rate_limit_us" "$((4 * SCHED_PERIOD_BALANCE / 1000))"
write "${cpu}schedutil/pl" "0"
write "${cpu}schedutil/iowait_boost_enable" "0"
write "${cpu}schedutil/rate_limit_us" "$((4 * SCHED_PERIOD_BALANCE / 1000))"
write "${cpu}schedutil/hispeed_load" "89"
write "${cpu}schedutil/hispeed_freq" "$cpumxfreq"
elif [[ "$avail_govs" == *"interactive"* ]]
then
write "${cpu}scaling_governor" interactive
write "${cpu}interactive/timer_rate" "40000"
write "${cpu}interactive/boost" "0"
write "${cpu}interactive/timer_slack" "40000"
write "${cpu}interactive/input_boost" "0"
write "${cpu}interactive/use_migration_notif" "1" 
write "${cpu}interactive/ignore_hispeed_on_notif" "1"
write "${cpu}interactive/use_sched_load" "1"
write "${cpu}interactive/boostpulse" "0"
write "${cpu}interactive/fastlane" "1"
write "${cpu}interactive/fast_ramp_down" "0"
write "${cpu}interactive/sampling_rate" "40000"
write "${cpu}interactive/sampling_rate_min" "50000"
write "${cpu}interactive/min_sample_time" "50000"
write "${cpu}interactive/go_hispeed_load" "89"
write "${cpu}interactive/hispeed_freq" "$cpumxfreq"
fi
done

for cpu in /sys/devices/system/cpu/cpu*
do
write "$cpu/online" "1"
done

kmsg1 "-------------------------------------------------------------------------------------------------------------------------------------------------"
kmsg1 "                                         TWEAKED CPU.                                                                                         "
kmsg1 "-------------------------------------------------------------------------------------------------------------------------------------------------"

# GPU Tweaks.
[[ $mtk == "false" ]] || [[ $exynos == "false" ]] && write "$gpu/throttling" "1"
[[ $mtk == "false" ]] || [[ $exynos == "false" ]] && write "$gpu/thermal_pwrlevel" "0"
[[ $mtk == "false" ]] || [[ $exynos == "false" ]] && write "$gpu/devfreq/adrenoboost" "0"
[[ $mtk == "false" ]] || [[ $exynos == "false" ]] && write "$gpu/force_no_nap" "0"
[[ $mtk == "false" ]] || [[ $exynos == "false" ]] && write "$gpu/bus_split" "1"
[[ $mtk == "false" ]] || [[ $exynos == "false" ]] && write "$gpu/devfreq/max_freq" `cat $gpu/max_gpuclk`
[[ $mtk == "false" ]] || [[ $exynos == "false" ]] && write "$gpu/devfreq/min_freq" "100000000"
[[ $mtk == "false" ]] || [[ $exynos == "false" ]] && write "$gpu/default_pwrlevel" "$gpuminpl"
[[ $mtk == "false" ]] || [[ $exynos == "false" ]] && write "$gpu/force_bus_on" "0"
[[ $mtk == "false" ]] || [[ $exynos == "false" ]] && write "$gpu/force_clk_on" "0"
[[ $mtk == "false" ]] || [[ $exynos == "false" ]] && write "$gpu/force_rail_on" "0"
[[ $mtk == "false" ]] || [[ $exynos == "false" ]] && write "$gpu/idle_timer" "66"
[[ $mtk == "false" ]] || [[ $exynos == "false" ]] && write "$gpu/pwrnap" "1"

if [[ -e "/proc/gpufreq/gpufreq_limited_thermal_ignore" ]] 
then
write "/proc/gpufreq/gpufreq_limited_thermal_ignore" "0"
fi

# Enable dvfs
if [[ -e "/proc/mali/dvfs_enable" ]] 
then
write "/proc/mali/dvfs_enable" "1"
fi

if [[ -e "/sys/module/pvrsrvkm/parameters/gpu_dvfs_enable" ]] 
then
write "/sys/module/pvrsrvkm/parameters/gpu_dvfs_enable" "1"
fi

if [[ -e "/sys/module/simple_gpu_algorithm/parameters/simple_gpu_activate" ]]
then
write "/sys/module/simple_gpu_algorithm/parameters/simple_gpu_activate" "1"
fi

kmsg1 "-------------------------------------------------------------------------------------------------------------------------------------------------"
kmsg1 "                                          TWEAKED GPU.                                                                                        "
kmsg1 "-------------------------------------------------------------------------------------------------------------------------------------------------"
	
# Enable and tweak adreno idler
if [[ -d "/sys/module/adreno_idler" ]]
then
write "/sys/module/adreno_idler/parameters/adreno_idler_active" "Y"
write "/sys/module/adreno_idler/parameters/adreno_idler_idleworkload" "6000"
write "/sys/module/adreno_idler/parameters/adreno_idler_downdifferential" "25"
write "/sys/module/adreno_idler/parameters/adreno_idler_idlewait" "25"
kmsg1 "-------------------------------------------------------------------------------------------------------------------------------------------------"
kmsg1 "                                          ENABLED AND TWEAKED ADRENO IDLER...                                                                  "
kmsg1 "-------------------------------------------------------------------------------------------------------------------------------------------------"
fi

# Schedtune Tweaks
[[ $ANDROID == "true" ]] && if [[ -d "/dev/stune" ]]
then
write "/dev/stune/background/schedtune.boost" "0"
write "/dev/stune/background/schedtune.prefer_idle" "0"
write "/dev/stune/foreground/schedtune.prefer_perf" "0"

write "/dev/stune/foreground/schedtune.boost" "0"
write "/dev/stune/foreground/schedtune.prefer_idle" "1"
write "/dev/stune/foreground/schedtune.prefer_perf" "0"

write "/dev/stune/rt/schedtune.boost" "0"
write "/dev/stune/rt/schedtune.prefer_idle" "0"
write "/dev/stune/rt/schedtune.prefer_perf" "1"

write "/dev/stune/top-app/schedtune.boost" "10"
write "/dev/stune/top-app/schedtune.prefer_idle" "1"
write "/dev/stune/top-app/schedtune.prefer_perf" "1"

write "/dev/stune/schedtune.boost" "0"
write "/dev/stune/schedtune.prefer_idle" "0"
kmsg1 "-------------------------------------------------------------------------------------------------------------------------------------------------"
kmsg1 "                                          APPLIED SCHEDTUNE TWEAKS.                                                                           "
kmsg1 "-------------------------------------------------------------------------------------------------------------------------------------------------"
fi

# FS Tweaks
if [[ -d "/proc/sys/fs" ]]
then
write "/proc/sys/fs/dir-notify-enable" "0"
write "/proc/sys/fs/lease-break-time" "15"
write "/proc/sys/fs/leases-enable" "1"
kmsg1 "-------------------------------------------------------------------------------------------------------------------------------------------------"
kmsg1 "                                          APPLIED FS TWEAKS.                                                                                  "
kmsg1 "-------------------------------------------------------------------------------------------------------------------------------------------------"
fi

# Enable dynamic_fsync
if [[ -e "/sys/kernel/dyn_fsync/Dyn_fsync_active" ]]
then
write "/sys/kernel/dyn_fsync/Dyn_fsync_active" "1"
kmsg1 "-------------------------------------------------------------------------------------------------------------------------------------------------"
kmsg1 "                                          ENABLED DYNAMIC FSYNC.                                                                              "
kmsg1 "-------------------------------------------------------------------------------------------------------------------------------------------------"
fi

# Scheduler features
if [[ -e "/sys/kernel/debug/sched_features" ]]
then
write "/sys/kernel/debug/sched_features" "NEXT_BUDDY"
write "/sys/kernel/debug/sched_features" "TTWU_QUEUE"
write "/sys/kernel/debug/sched_features" "NO_GENTLE_FAIR_SLEEPERS"
write "/sys/kernel/debug/sched_features" "WAKEUP_PREEMPTION"
fi

kmsg1 "-------------------------------------------------------------------------------------------------------------------------------------------------"
kmsg1 "                                          APPLIED SCHEDULER FEATURES.                                                                         "
kmsg1 "-------------------------------------------------------------------------------------------------------------------------------------------------"

# OP Chain disable
if [[ -d "/sys/module/opchain" ]]
then
write "/sys/module/opchain/parameters/chain_on" "0"
kmsg1 "-------------------------------------------------------------------------------------------------------------------------------------------------"
kmsg1 "                                          DISABLED ONEPLUS CHAIN.                                                                             "
kmsg1 "-------------------------------------------------------------------------------------------------------------------------------------------------"
fi

if [[ -d "/sys/module/mmc_core" ]];
then
write "/sys/module/mmc_core/parameters/crc" "0"
kmsg1 "-------------------------------------------------------------------------------------------------------------------------------------------------"
kmsg1 "                                          DISABLED CRC.                                                                             "
kmsg1 "-------------------------------------------------------------------------------------------------------------------------------------------------"
fi

# Tweak some kernel settings to improve overall performance
write "/proc/sys/kernel/sched_child_runs_first" "0"
write "/proc/sys/kernel/sched_boost" "0"
write "/proc/sys/kernel/perf_cpu_time_max_percent" "15"
write "/proc/sys/kernel/sched_autogroup_enabled" "1"
write "/proc/sys/kernel/random/read_wakeup_threshold" "64"
write "/proc/sys/kernel/random/write_wakeup_threshold" "256"
write "/proc/sys/kernel/sched_tunable_scaling" "0"
write "/proc/sys/kernel/sched_latency_ns" "$SCHED_PERIOD_BALANCE"
write "/proc/sys/kernel/sched_min_granularity_ns" "$((SCHED_PERIOD_BALANCE / SCHED_TASKS_BALANCE))"