#!/system/bin/sh
# KTS by pedrozzz (pedrozzz0 @ GitHub)

MODPATH=/data/adb/modules/KTSR
. $MODPATH/libs/libktsr.sh

boot_run_once=false
kts_mode=$(getprop persist.kingtweaks.mode)
[ -z "$kts_mode" ] && setprop persist.kingtweaks.mode "1"

while true
do
sleep 3
if $boot_run_once
then
[ "$(getprop persist.kingtweaks.mode)" == "$kts_mode" ] && continue
else
boot_run_once=true
fi
kts_mode=$(getprop persist.kingtweaks.mode)

if [[ "$kts_mode" == "1" ]]
then
kts_profilein=Otomatis

elif [[ "$kts_mode" == "2" ]]
then
kts_profilein=Baterai

elif [[ "$kts_mode" == "3" ]]
then
kts_profilein=Seimbang

elif [[ "$kts_mode" == "4" ]]
then
kts_profilein=Ekstrim

elif [[ "$kts_mode" == "5" ]]
then
kts_profilein=Gaming
fi

if [[ "$kts_mode" == "1" ]]
then
kts_profilept=Automático

elif [[ "$kts_mode" == "2" ]]
then
kts_profilept=Bateria
        	
elif [[ "$kts_mode" == "3" ]]
then
kts_profilept=Balanceado
        	
elif [[ "$kts_mode" == "4" ]]
then
kts_profilept=Extremo
        	
elif [[ "$kts_mode" == "5" ]]
then
kts_profilept=Gaming
fi
	 	
if [[ "$kts_mode" == "1" ]]
then
kts_profile=Automatic

elif [[ "$kts_mode" == "2" ]]
then
kts_profile=Battery
        	
elif [[ "$kts_mode" == "3" ]]
then
kts_profile=Balanced
        	
elif [[ "$kts_mode" == "4" ]]
then
kts_profile=Extreme

elif [[ "$kts_mode" == "5" ]]
then
kts_profile=Gaming
fi

if [[ "$kts_mode" == "1" ]]
then
kts_profiletr=Gecikme

elif [[ "$kts_mode" == "2" ]]
then
kts_profiletr=Batarya
        	
elif [[ "$kts_mode" == "3" ]]
then
kts_profiletr=Dengeli
        	
elif [[ "$kts_mode" == "4" ]]
then
kts_profiletr=Aşırı

elif [[ "$kts_mode" == "5" ]]
then
kts_profiletr=Oyun
fi

if [[ "$kts_mode" == "1" ]]
then
kts_profilefr=Automatique

elif [[ "$kts_mode" == "2" ]]
then
kts_profilefr=Batterie
        	
elif [[ "$kts_mode" == "3" ]]
then
kts_profilefr=Modéré
        	
elif [[ "$kts_mode" == "4" ]]
then
kts_profilefr=Extrême

elif [[ "$kts_mode" == "5" ]]
then
kts_profilefr=Jeu
fi

case "$kts_profile" in
 "Automatic") {
 	sleep 5
   
         if [[ `getprop persist.sys.locale` == "en-US" ]]
     	then
     	toast
     	
     	elif [[ `getprop persist.sys.locale` == "en-GB" ]]
         then
         toast
         
     	elif [[ `getprop persist.sys.locale` == "pt-BR" ]]
     	then
     	toastpt
     	
     	elif [[ `getprop persist.sys.locale` == "id-ID" ]]
     	then
     	toastin
     	
     	elif [[ `getprop persist.sys.locale` == "tr-TR" ]]
     	then
     	toasttr
     	
     	elif [[ `getprop persist.sys.locale` == "fr-FR" ]]
     	then
     	toastfr

     	elif [[ `getprop persist.sys.locale` == "fr-CA" ]]
     	then
     	toastfr

     	else
     	toast
     	fi

         automatic
         
         if [[ `getprop persist.sys.locale` == "en-US" ]]
     	then
     	toast1
     	
     	elif [[ `getprop persist.sys.locale` == "en-GB" ]]
         then
         toast1
         
     	elif [[ `getprop persist.sys.locale` == "pt-BR" ]]
     	then
     	toastpt1
     	
     	elif [[ `getprop persist.sys.locale` == "id-ID" ]]
     	then
     	toastin1
     	
     	elif [[ `getprop persist.sys.locale` == "tr-TR" ]]
     	then
     	toasttr1
     	
     	elif [[ `getprop persist.sys.locale` == "fr-FR" ]]
     	then
     	toastfr1

     	elif [[ `getprop persist.sys.locale` == "fr-CA" ]]
     	then
     	toastfr1

     	else
     	toast1
     	fi
	     };;
	 
	 "Balanced") {
	 	sleep 5
         
         if [[ `getprop persist.sys.locale` == "en-US" ]]
     	then
     	toast
     	
     	elif [[ `getprop persist.sys.locale` == "en-GB" ]]
         then
         toast
         
     	elif [[ `getprop persist.sys.locale` == "pt-BR" ]]
     	then
     	toastpt
     	
     	elif [[ `getprop persist.sys.locale` == "id-ID" ]]
     	then
     	toastin
     	
     	elif [[ `getprop persist.sys.locale` == "tr-TR" ]]
     	then
     	toasttr
     	
     	elif [[ `getprop persist.sys.locale` == "fr-FR" ]]
     	then
     	toastfr

     	elif [[ `getprop persist.sys.locale` == "fr-CA" ]]
     	then
     	toastfr

     	else
     	toast
     	fi

         killall kingauto
	 	balanced

         if [[ `getprop persist.sys.locale` == "en-US" ]]
     	then
     	toast1
     	
     	elif [[ `getprop persist.sys.locale` == "en-GB" ]]
         then
         toast1
         
     	elif [[ `getprop persist.sys.locale` == "pt-BR" ]]
     	then
     	toastpt1
     	
     	elif [[ `getprop persist.sys.locale` == "id-ID" ]]
     	then
     	toastin1
     	
     	elif [[ `getprop persist.sys.locale` == "tr-TR" ]]
     	then
     	toasttr1
     	
     	elif [[ `getprop persist.sys.locale` == "fr-FR" ]]
     	then
     	toastfr1

     	elif [[ `getprop persist.sys.locale` == "fr-CA" ]]
     	then
     	toastfr1

     	else
     	toast1
     	fiif [[ `getprop persist.sys.locale` == "en-US" ]]
     	then
     	toast1
     	
     	elif [[ `getprop persist.sys.locale` == "en-GB" ]]
         then
         toast1
         
     	elif [[ `getprop persist.sys.locale` == "pt-BR" ]]
     	then
     	toastpt1
     	
     	elif [[ `getprop persist.sys.locale` == "id-ID" ]]
     	then
     	toastin1
     	
     	elif [[ `getprop persist.sys.locale` == "tr-TR" ]]
     	then
     	toasttr1
     	
     	elif [[ `getprop persist.sys.locale` == "fr-FR" ]]
     	then
     	toastfr1

     	elif [[ `getprop persist.sys.locale` == "fr-CA" ]]
     	then
     	toastfr1

     	else
     	toast1
     	fi
	 	};;
	
	 	"Extreme") {
	 		sleep 5
             
         if [[ `getprop persist.sys.locale` == "en-US" ]]
     	then
     	toast
     	
     	elif [[ `getprop persist.sys.locale` == "en-GB" ]]
         then
         toast
         
     	elif [[ `getprop persist.sys.locale` == "pt-BR" ]]
     	then
     	toastpt
     	
     	elif [[ `getprop persist.sys.locale` == "id-ID" ]]
     	then
     	toastin
     	
     	elif [[ `getprop persist.sys.locale` == "tr-TR" ]]
     	then
     	toasttr
     	
     	elif [[ `getprop persist.sys.locale` == "fr-FR" ]]
     	then
     	toastfr

     	elif [[ `getprop persist.sys.locale` == "fr-CA" ]]
     	then
     	toastfr

     	else
     	toast
     	fi

             killall kingauto
	 		extreme

         if [[ `getprop persist.sys.locale` == "en-US" ]]
     	then
     	toast1
     	
     	elif [[ `getprop persist.sys.locale` == "en-GB" ]]
         then
         toast1
         
     	elif [[ `getprop persist.sys.locale` == "pt-BR" ]]
     	then
     	toastpt1
     	
     	elif [[ `getprop persist.sys.locale` == "id-ID" ]]
     	then
     	toastin1
     	
     	elif [[ `getprop persist.sys.locale` == "tr-TR" ]]
     	then
     	toasttr1
     	
     	elif [[ `getprop persist.sys.locale` == "fr-FR" ]]
     	then
     	toastfr1

     	elif [[ `getprop persist.sys.locale` == "fr-CA" ]]
     	then
     	toastfr1

     	else
     	toast1
     	fi
	 	};;
	 		
	 		"Battery") {
	 			sleep 5

         if [[ `getprop persist.sys.locale` == "en-US" ]]
     	then
     	toast
     	
     	elif [[ `getprop persist.sys.locale` == "en-GB" ]]
         then
         toast
         
     	elif [[ `getprop persist.sys.locale` == "pt-BR" ]]
     	then
     	toastpt
     	
     	elif [[ `getprop persist.sys.locale` == "id-ID" ]]
     	then
     	toastin
     	
     	elif [[ `getprop persist.sys.locale` == "tr-TR" ]]
     	then
     	toasttr
     	
     	elif [[ `getprop persist.sys.locale` == "fr-FR" ]]
     	then
     	toastfr

     	elif [[ `getprop persist.sys.locale` == "fr-CA" ]]
     	then
     	toastfr

     	else
     	toast
     	fi

                 killall kingauto
	 			battery

         if [[ `getprop persist.sys.locale` == "en-US" ]]
     	then
     	toast1
     	
     	elif [[ `getprop persist.sys.locale` == "en-GB" ]]
         then
         toast1
         
     	elif [[ `getprop persist.sys.locale` == "pt-BR" ]]
     	then
     	toastpt1
     	
     	elif [[ `getprop persist.sys.locale` == "id-ID" ]]
     	then
     	toastin1
     	
     	elif [[ `getprop persist.sys.locale` == "tr-TR" ]]
     	then
     	toasttr1
     	
     	elif [[ `getprop persist.sys.locale` == "fr-FR" ]]
     	then
     	toastfr1

     	elif [[ `getprop persist.sys.locale` == "fr-CA" ]]
     	then
     	toastfr1

     	else
     	toast1
     	fi
	 	};;

	 			"Gaming") {
	 				sleep 5

         if [[ `getprop persist.sys.locale` == "en-US" ]]
     	then
     	toast
     	
     	elif [[ `getprop persist.sys.locale` == "en-GB" ]]
         then
         toast
         
     	elif [[ `getprop persist.sys.locale` == "pt-BR" ]]
     	then
     	toastpt
     	
     	elif [[ `getprop persist.sys.locale` == "id-ID" ]]
     	then
     	toastin
     	
     	elif [[ `getprop persist.sys.locale` == "tr-TR" ]]
     	then
     	toasttr
     	
     	elif [[ `getprop persist.sys.locale` == "fr-FR" ]]
     	then
     	toastfr

     	elif [[ `getprop persist.sys.locale` == "fr-CA" ]]
     	then
     	toastfr

     	else
     	toast
     	fi

                     killall kingauto
	 				gaming

         if [[ `getprop persist.sys.locale` == "en-US" ]]
     	then
     	toast1
     	
     	elif [[ `getprop persist.sys.locale` == "en-GB" ]]
         then
         toast1
         
     	elif [[ `getprop persist.sys.locale` == "pt-BR" ]]
     	then
     	toastpt1
     	
     	elif [[ `getprop persist.sys.locale` == "id-ID" ]]
     	then
     	toastin1
     	
     	elif [[ `getprop persist.sys.locale` == "tr-TR" ]]
     	then
     	toasttr1
     	
     	elif [[ `getprop persist.sys.locale` == "fr-FR" ]]
     	then
     	toastfr1

     	elif [[ `getprop persist.sys.locale` == "fr-CA" ]]
     	then
     	toastfr1

     	else
     	toast1
     	fi
	 	};;
esac
done